test/TEST190523/losses_no_pv.csv
Element,  Total(W), Total(var),  I2R(W), I2X(var), No-load(W), No-load(var)
Line.MV3PMAI0, 31.22954, 81.13954, 31.22954, 81.13954, 0, 0
Line.MV3PMAI1, 70.19211, 182.4217, 70.19211, 182.4217, 0, 0
Line.MV3PMAI2, 716.5369, 1862.21, 716.5369, 1862.21, 0, 0
Line.MV3PMAI3, 29.98187, 77.91963, 29.98187, 77.91963, 0, 0
Line.MV3PMAI4, 677.1112, 1763.618, 677.1112, 1763.618, 0, 0
Line.MV1PMAI5, 0.0009846585, -3.745051, 0.0009846585, -3.745051, 0, 0
Line.MV3PMAI6, 125.1606, 325.7924, 125.1606, 325.7924, 0, 0
Line.MV1PMAI7, 0.04310543, -1.518223, 0.04310543, -1.518223, 0, 0
Line.MV1PMAI8, -1.495436E-009, -2.618725, -1.495436E-009, -2.618725, 0, 0
Line.MV3PMAI9, 709.2471, 922.0196, 709.2471, 922.0196, 0, 0
Line.MV3PMAI10, 448.3858, 1159.395, 448.3858, 1159.395, 0, 0
Line.MV3PMAI11, 0.0003097798, -7.374158, 0.0003097798, -7.374158, 0, 0
Line.MV3PMAI12, 28.9835, 17.98827, 28.9835, 17.98827, 0, 0
Line.MV3PMAI13, 14.49168, 8.99372, 14.49168, 8.99372, 0, 0
Line.MV1PMAI14, 0.1116797, -3.932967, 0.1116797, -3.932967, 0, 0
Line.MV3PMAI15, 365.1215, 944.2714, 365.1215, 944.2714, 0, 0
Line.MV3PMAI16, 4.014585E-006, -0.4918471, 4.014585E-006, -0.4918471, 0, 0
Line.MV1PMAI17, 0.001373588, -20.87469, 0.001373588, -20.87469, 0, 0
Line.MV1PMAI18, 0.0794307, -2.796788, 0.0794307, -2.796788, 0, 0
Line.MV1PMAI19, 6.048355E-006, -23.38139, 6.048355E-006, -23.38139, 0, 0
Line.MV3PMAI20, 0.000419455, -150.9514, 0.000419455, -150.9514, 0, 0
Line.MV3PMAI21, 14.49182, 8.994547, 14.49182, 8.994547, 0, 0
Line.MV3PMAI22, 3.108163, 3.91053, 3.108163, 3.91053, 0, 0
Line.MV3PMAI23, 0.01500851, -12.97219, 0.01500851, -12.97219, 0, 0
Line.MV3PMAI24, 0.04120348, -13.80928, 0.04120348, -13.80928, 0, 0
Line.MV3PMAI25, 134.6218, 348.157, 134.6218, 348.157, 0, 0
Line.MV3PMAI26, 0.06961525, -23.32479, 0.06961525, -23.32479, 0, 0
Line.MV3PMAI27, 0.07395822, -25.60707, 0.07395822, -25.60707, 0, 0
Line.MV3PMAI28, 0.0007799267, -25.8946, 0.0007799267, -25.8946, 0, 0
Line.MV1PMAI29, 0.007656495, -9.544637, 0.007656495, -9.544637, 0, 0
Line.MV1PMAI30, 0.0008987098, -55.60579, 0.0008987098, -55.60579, 0, 0
Line.MV1PMAI31, 0.06468671, -2.458967, 0.06468671, -2.458967, 0, 0
Line.MV1PMAI32, 0.09778932, -4.002077, 0.09778932, -4.002077, 0, 0
Line.MV3PMAI33, 1.988399E-007, -23.04621, 1.988399E-007, -23.04621, 0, 0
Line.MV3PMAI34, 0.000247969, -95.25533, 0.000247969, -95.25533, 0, 0
Line.MV1PMAI35, -4.326984E-007, -0.8941992, -4.326984E-007, -0.8941992, 0, 0
Line.MV1PMAI36, 2.081708E-005, -21.47853, 2.081708E-005, -21.47853, 0, 0
Line.MV1PMAI37, 0.007623899, -22.98661, 0.007623899, -22.98661, 0, 0
Line.MV1PMAI38, 0.03376889, -89.8911, 0.03376889, -89.8911, 0, 0
Line.MV3PMAI39, 241.2115, 624.2517, 241.2115, 624.2517, 0, 0
Line.MV3PMAI40, 339.714, 879.1811, 339.714, 879.1811, 0, 0
Line.MV3PMAI41, -2.580611E-007, -13.70066, -2.580611E-007, -13.70066, 0, 0
Line.MV3PMAI42, 357.0439, 924.0388, 357.0439, 924.0388, 0, 0
Line.MV3PMAI43, 418.1105, 1082.236, 418.1105, 1082.236, 0, 0
Line.MV3PMAI44, 0.0001099659, -15.74163, 0.0001099659, -15.74163, 0, 0
Line.MV3PMAI45, 429.6857, 1111.957, 429.6857, 1111.957, 0, 0
Line.MV3PMAI46, -1.79244E-008, -11.33293, -1.79244E-008, -11.33293, 0, 0
Line.MV3PMAI47, -9.509901E-008, -11.87618, -9.509901E-008, -11.87618, 0, 0
Line.MV3PMAI48, 6.643156E-007, -11.31231, 6.643156E-007, -11.31231, 0, 0
Line.MV3PMAI49, 0.0006427677, -371.3072, 0.0006427677, -371.3072, 0, 0
Line.MV3PMAI50, 41.48199, 107.3521, 41.48199, 107.3521, 0, 0
Line.MV3PMAI51, 428.4111, 1108.701, 428.4111, 1108.701, 0, 0
Line.MV3PMAI52, 1.380532E-007, -12.92274, 1.380532E-007, -12.92274, 0, 0
Line.MV3PMAI53, 0.0001239986, -25.16364, 0.0001239986, -25.16364, 0, 0
Line.MV3PMAI54, 0.007210733, -21.01324, 0.007210733, -21.01324, 0, 0
Line.MV3PMAI55, 327.6624, 848.2006, 327.6624, 848.2006, 0, 0
Line.MV3PMAI56, 0.007496018, -21.81182, 0.007496018, -21.81182, 0, 0
Line.MV3PMAI57, 379.7566, 983.0624, 379.7566, 983.0624, 0, 0
Line.MV3PMAI58, 0.01039169, -30.18351, 0.01039169, -30.18351, 0, 0
Line.MV3PMAI59, 0.00877189, -25.42687, 0.00877189, -25.42687, 0, 0
Line.MV1PMAI60, 0.07225787, -4.375357, 0.07225787, -4.375357, 0, 0
Line.MV3PMAI61, 8.670942, 22.46276, 8.670942, 22.46276, 0, 0
Line.MV1PMAI62, 2.209315E-005, -1.286049, 2.209315E-005, -1.286049, 0, 0
Line.MV3PMAI63, 320.593, 830.5285, 320.593, 830.5285, 0, 0
Line.MV3PMAI64, 435.9335, 1127.736, 435.9335, 1127.736, 0, 0
Line.MV3PMAI65, 98.62186, 255.4885, 98.62186, 255.4885, 0, 0
Line.MV3PMAI66, 0.0005422269, -25.42726, 0.0005422269, -25.42726, 0, 0
Line.MV3PMAI67, 0.0005081845, -23.58008, 0.0005081845, -23.58008, 0, 0
Line.MV1PMAI68, 0.002806035, -0.1332813, 0.002806035, -0.1332813, 0, 0
Line.MV3PMAI69, 343.4033, 888.4812, 343.4033, 888.4812, 0, 0
Line.MV1PMAI70, 0.002691924, -64.40337, 0.002691924, -64.40337, 0, 0
Line.MV1PMAI71, 0.123089, -7.452076, 0.123089, -7.452076, 0, 0
Line.MV1PMAI72, 0.1292134, -7.821254, 0.1292134, -7.821254, 0, 0
Line.MV3PMAI73, 0.1138252, -12.88248, 0.1138252, -12.88248, 0, 0
Line.MV3PMAI74, 335.1652, 865.4343, 335.1652, 865.4343, 0, 0
Line.MV3PMAI75, 0.371456, -496.4898, 0.371456, -496.4898, 0, 0
Line.MV3PMAI76, 386.3479, 997.5705, 386.3479, 997.5705, 0, 0
Line.MV3PMAI77, 0.06243998, -22.63624, 0.06243998, -22.63624, 0, 0
Line.MV3PMAI78, 158.3599, 367.0014, 158.3599, 367.0014, 0, 0
Line.MV3PMAI79, 79.17976, 183.4984, 79.17976, 183.4984, 0, 0
Line.MV3PMAI80, 0.04253505, -5.580508, 0.04253505, -5.580508, 0, 0
Line.MV3PMAI81, 8.670936, 22.46275, 8.670936, 22.46275, 0, 0
Line.MV3PMAI82, 0.06399759, -99.05457, 0.06399759, -99.05457, 0, 0
Line.MV3PMAI83, 157.8107, 387.721, 157.8107, 387.721, 0, 0
Line.MV3PMAI84, 78.90555, 193.8618, 78.90555, 193.8618, 0, 0
Line.MV3PMAI85, 757.0988, 1967.601, 757.0988, 1967.601, 0, 0
Line.MV3PMAI86, 78.90548, 193.8602, 78.90548, 193.8602, 0, 0
Line.MV1PMAI87, 0.3894022, -0.7000632, 0.3894022, -0.7000632, 0, 0
Line.MV3PMAI88, 153.6178, 397.1666, 153.6178, 397.1666, 0, 0
Line.MV3PMAI89, 79.17993, 183.5024, 79.17993, 183.5024, 0, 0
Line.MV3PMAI90, 1.137028E-006, -12.84849, 1.137028E-006, -12.84849, 0, 0
Line.MV3PMAI91, 1.996591E-005, -43.55339, 1.996591E-005, -43.55339, 0, 0
Line.MV3PMAI92, 137.0145, 172.39, 137.0145, 172.39, 0, 0
Line.MV3PMAI93, 56.84595, 71.53725, 56.84595, 71.53725, 0, 0
Line.MV3PMAI94, 0.0067729, -187.7058, 0.0067729, -187.7058, 0, 0
Line.MV3PMAI95, 33.9417, 42.70393, 33.9417, 42.70393, 0, 0
Line.MV3PMAI96, 71.13809, 90.40155, 71.13809, 90.40155, 0, 0
Line.MV3PMAI97, 118.4672, 150.5515, 118.4672, 150.5515, 0, 0
Line.MV3PMAI98, 0.3473313, -9.701461, 0.3473313, -9.701461, 0, 0
Line.MV1PMAI99, 1.071552E-007, -4.334329, 1.071552E-007, -4.334329, 0, 0
Line.MV3PMAI100, 112.7117, 138.487, 112.7117, 138.487, 0, 0
Line.MV3PMAI101, 109.016, 136.2412, 109.016, 136.2412, 0, 0
Line.MV1PMAI102, 0.03865264, -0.08587693, 0.03865264, -0.08587693, 0, 0
Line.MV1PMAI103, 1.897284, -4.215281, 1.897284, -4.215281, 0, 0
Line.MV1PMAI104, 0.03764753, -0.08506359, 0.03764753, -0.08506359, 0, 0
Line.MV1PMAI105, 0.03865259, -0.08587675, 0.03865259, -0.08587675, 0, 0
Line.MV1PMAI106, 0.06278014, -0.1865599, 0.06278014, -0.1865599, 0, 0
Line.MV3PMAI107, 108.7251, 130.1353, 108.7251, 130.1353, 0, 0
Line.MV3PMAI108, 109.7611, 131.3826, 109.7611, 131.3826, 0, 0
Line.MV3PMAI109, 118.5258, 141.8821, 118.5258, 141.8821, 0, 0
Line.MV1PMAI110, 0.1528258, -4.566565, 0.1528258, -4.566565, 0, 0
Line.MV3PMAI111, 86.41072, 100.8988, 86.41072, 100.8988, 0, 0
Line.MV3PMAI112, 0.002591967, -72.97412, 0.002591967, -72.97412, 0, 0
Line.MV1PMAI113, 1.359959, -4.04092, 1.359959, -4.04092, 0, 0
Line.MV1PMAI114, 0.4651113, -1.381863, 0.4651113, -1.381863, 0, 0
Line.MV1PMAI115, 0.0638337, -0.1896892, 0.0638337, -0.1896892, 0, 0
Line.MV1PMAI116, 0.9747879, -4.576773, 0.9747879, -4.576773, 0, 0
Line.MV1PMAI117, 0.003133541, -1.978577, 0.003133541, -1.978577, 0, 0
Line.MV1PMAI118, 0.004941842, -3.381251, 0.004941842, -3.381251, 0, 0
Line.MV1PMAI119, 0.1902359, -9.082016, 0.1902359, -9.082016, 0, 0
Line.MV1PMAI120, 2.658252, -6.094229, 2.658252, -6.094229, 0, 0
Line.MV1PMAI121, 0.04567461, -6.616293, 0.04567461, -6.616293, 0, 0
Line.MV1PMAI122, 0.04755857, -4.757899, 0.04755857, -4.757899, 0, 0
Line.MV1PMAI123, 0.0404182, -6.191607, 0.0404182, -6.191607, 0, 0
Line.MV1PMAI124, 3.577856E-005, -2.186426, 3.577856E-005, -2.186426, 0, 0
Line.MV1PMAI125, 0.4537107, -6.601527, 0.4537107, -6.601527, 0, 0
Line.MV1PMAI126, 0.001477321, -51.57981, 0.001477321, -51.57981, 0, 0
Line.MV1PMAI127, 0.001122995, -55.84549, 0.001122995, -55.84549, 0, 0
Line.MV3PMAI128, 81.79053, 93.20637, 81.79053, 93.20637, 0, 0
Line.MV1PMAI129, 0.006161584, -29.47656, 0.006161584, -29.47656, 0, 0
Line.MV1PMAI130, 0.00274055, -25.59466, 0.00274055, -25.59466, 0, 0
Line.MV1PMAI131, 0.0536012, -141.117, 0.0536012, -141.117, 0, 0
Line.MV1PMAI132, 0.01219693, -8.338101, 0.01219693, -8.338101, 0, 0
Line.MV1PMAI133, 0.007716329, -5.269851, 0.007716329, -5.269851, 0, 0
Line.MV1PMAI134, 0.05822653, -5.822067, 0.05822653, -5.822067, 0, 0
Line.MV1PMAI135, 0.3945094, -5.739422, 0.3945094, -5.739422, 0, 0
Line.MV1PMAI136, 0.1521425, -6.906723, 0.1521425, -6.906723, 0, 0
Line.MV1PMAI137, 0.02831882, -4.372256, 0.02831882, -4.372256, 0, 0
Line.MV1PMAI138, 0.00746841, -5.096792, 0.00746841, -5.096792, 0, 0
Line.MV1PMAI139, 0.008432334, -5.750061, 0.008432334, -5.750061, 0, 0
Line.MV1PMAI140, 0.0001701724, -7.534645, 0.0001701724, -7.534645, 0, 0
Line.MV1PMAI141, 0.0001353621, -5.850244, 0.0001353621, -5.850244, 0, 0
Line.MV3PMAI142, 0.001660299, -3.950096, 0.001660299, -3.950096, 0, 0
Line.MV3PMAI143, 0.004478812, -124.7156, 0.004478812, -124.7156, 0, 0
Line.MV3PMAI144, 107.032, 121.9785, 107.032, 121.9785, 0, 0
Line.MV3PMAI145, 97.98254, 112.9832, 97.98254, 112.9832, 0, 0
Line.MV3PMAI146, -7.517456E-008, -21.13004, -7.517456E-008, -21.13004, 0, 0
Line.MV1PMAI147, 0.05562523, -6.011063, 0.05562523, -6.011063, 0, 0
Line.MV1PMAI148, 0.0001355, -5.739295, 0.0001355, -5.739295, 0, 0
Line.MV3PMAI149, 46.27416, 53.31724, 46.27416, 53.31724, 0, 0
Line.MV3PMAI150, 0.0125306, -10.61303, 0.0125306, -10.61303, 0, 0
Line.MV1PMAI151, 0.001108767, -0.1386678, 0.001108767, -0.1386678, 0, 0
Line.MV1PMAI152, 0.02480685, -3.318182, 0.02480685, -3.318182, 0, 0
Line.MV1PMAI153, 0.02153117, -3.027571, 0.02153117, -3.027571, 0, 0
Line.MV1PMAI154, 0.03588179, -5.390827, 0.03588179, -5.390827, 0, 0
Line.MV1PMAI155, 0.03607684, -6.170102, 0.03607684, -6.170102, 0, 0
Line.MV1PMAI156, 8.538501E-005, -5.251484, 8.538501E-005, -5.251484, 0, 0
Line.MV1PMAI157, 0.0006941075, -7.32394, 0.0006941075, -7.32394, 0, 0
Line.MV1PMAI158, -2.187412E-006, -0.07718918, -2.187412E-006, -0.07718918, 0, 0
Line.MV3PMAI159, -1.514113E-006, -19.68265, -1.514113E-006, -19.68265, 0, 0
Line.MV3PMAI160, 1.332489, -13.78692, 1.332489, -13.78692, 0, 0
Line.MV3PMAI161, 23.56372, 22.75251, 23.56372, 22.75251, 0, 0
Line.MV3PMAI162, 0.1210301, -1.172691, 0.1210301, -1.172691, 0, 0
Line.MV3PMAI163, 0.3456995, -32.71768, 0.3456995, -32.71768, 0, 0
Line.MV3PMAI164, 58.45803, 56.4859, 58.45803, 56.4859, 0, 0
Line.MV3PMAI165, 2.075104, -30.9676, 2.075104, -30.9676, 0, 0
Line.MV3PMAI166, 2.094603, -31.25562, 2.094603, -31.25562, 0, 0
Line.MV1PMAI167, 0.5253977, -4.414515, 0.5253977, -4.414515, 0, 0
Line.MV3PMAI168, 0.4148907, -26.09961, 0.4148907, -26.09961, 0, 0
Line.MV1PMAI169, -2.488281E-007, -1.636734, -2.488281E-007, -1.636734, 0, 0
Line.MV3PMAI170, 0.2611, -24.70765, 0.2611, -24.70765, 0, 0
Line.MV3PMAI171, 0.01561799, -24.29967, 0.01561799, -24.29967, 0, 0
Line.MV3PMAI172, 0.01757667, -27.32966, 0.01757667, -27.32966, 0, 0
Line.MV3PMAI173, 0.3063861, -30.16221, 0.3063861, -30.16221, 0, 0
Line.MV3PMAI174, 0.1772872, -18.55545, 0.1772872, -18.55545, 0, 0
Line.MV1PMAI175, 0.0001227803, -13.30571, 0.0001227803, -13.30571, 0, 0
Line.MV3PMAI176, 0.3662324, -309.5558, 0.3662324, -309.5558, 0, 0
Line.MV3PMAI177, 0.01481894, -22.73866, 0.01481894, -22.73866, 0, 0
Line.MV3PMAI178, 0.0149895, -22.99121, 0.0149895, -22.99121, 0, 0
Line.MV3PMAI179, 0.01075888, -16.47356, 0.01075888, -16.47356, 0, 0
Line.MV3PMAI180, 0.00181466, -41.64118, 0.00181466, -41.64118, 0, 0
Line.MV1PMAI181, 0.3889188, -5.54127, 0.3889188, -5.54127, 0, 0
Line.MV3PMAI182, 0.1515391, -30.68389, 0.1515391, -30.68389, 0, 0
Line.MV3PMAI183, 0.1780583, -36.04577, 0.1780583, -36.04577, 0, 0
Line.MV3PMAI184, 50.62894, 48.92542, 50.62894, 48.92542, 0, 0
Line.MV3PMAI185, -7.808191E-007, -17.80274, -7.808191E-007, -17.80274, 0, 0
Line.MV3PMAI186, 0.0006371337, -16.12102, 0.0006371337, -16.12102, 0, 0
Line.MV3PMAI187, 63.5211, 61.34511, 63.5211, 61.34511, 0, 0
Line.MV3PMAI188, 0.02188386, -23.79929, 0.02188386, -23.79929, 0, 0
Line.MV3PMAI189, 0.1752656, -18.99202, 0.1752656, -18.99202, 0, 0
Line.MV1PMAI190, 0.001247424, -1.634366, 0.001247424, -1.634366, 0, 0
Line.MV3PMAI191, 0.1864131, -25.07297, 0.1864131, -25.07297, 0, 0
Line.MV3PMAI192, 0.001738304, -8.308021, 0.001738304, -8.308021, 0, 0
Line.MV3PMAI193, 0.009673395, -1.300311, 0.009673395, -1.300311, 0, 0
Line.MV3PMAI194, 0.2494822, -27.05175, 0.2494822, -27.05175, 0, 0
Line.MV3PMAI195, 0.0002120603, -255.3944, 0.0002120603, -255.3944, 0, 0
Line.MV1PMAI196, 0.0003307754, -1.735689, 0.0003307754, -1.735689, 0, 0
Line.MV3PMAI197, 0.298996, -32.85998, 0.298996, -32.85998, 0, 0
Line.MV3PMAI198, -1.398681E-006, -5.655685, -1.398681E-006, -5.655685, 0, 0
Line.MV3PMAI199, 5.810784E-008, -11.80969, 5.810784E-008, -11.80969, 0, 0
...
Transformer.HVMV, -1.653098E-008, 50443.57, -1.653098E-008, 50443.57, 0, 0
Transformer.MAI1P_1, 288.8233, 1063.642, 0.2397484, 0.4396389, 288.5835, 1063.202
Transformer.MAI1P_2, 189.4594, 508.3255, 2.938413, 4.214738, 186.521, 504.1108
Transformer.MAI1P_3, 364.5592, 1316.162, 0.2486169, 0.5965758, 364.3106, 1315.566
Transformer.MAI1P_4, 234.4461, 573.6431, 45.36384, 62.60989, 189.0823, 511.0332
Transformer.MAI1P_5, 175.0331, 426.4018, 9.18666, 11.78571, 165.8465, 414.6161
Transformer.MAI1P_6, 287.8938, 1060.219, 0.2389768, 0.4382241, 287.6548, 1059.781
Transformer.MAI1P_7, 167.1762, 417.8876, 0.08795836, 0.1671291, 167.0882, 417.7205
Transformer.MAI1P_8, 152.4964, 359.1431, 34.59139, 33.0229, 117.905, 326.1202
Transformer.MAI1P_9, 213.214, 540.3848, 27.78501, 39.22551, 185.4289, 501.1593
Transformer.MAI1P_10, 210.9047, 537.1886, 25.43124, 35.90885, 185.4735, 501.2797
Transformer.MAI1P_11, 188.3994, 508.9196, 0.2649286, 0.4481559, 188.1344, 508.4715
Transformer.MAI1P_12, 293.4597, 1072.503, 4.003501, 6.085567, 289.4562, 1066.417
Transformer.MAI1P_13, 294.0147, 1082.138, 0.529015, 0.8749111, 293.4857, 1081.263
Transformer.MAI1P_14, 294.6418, 1082.922, 1.22783, 1.923127, 293.414, 1080.999
Transformer.MAI1P_15, 193.1561, 518.2601, 2.983327, 4.279472, 190.1728, 513.9806
Transformer.MAI1P_16, 85.08931, 212.6006, 0.07766611, 0.07144841, 85.01165, 212.5291
Transformer.MAI1P_17, 254.0536, 452.9274, 137.8387, 131.4821, 116.2148, 321.4453
Transformer.MAI1P_18, 288.2108, 1061.387, 0.23924, 0.4387066, 287.9716, 1060.948
Transformer.MAI1P_19, 187.4386, 506.1407, 0.4054946, 0.6457919, 187.0331, 505.4949
Transformer.MAI1P_20, 147.9171, 252.1988, 63.90639, 42.172, 84.01073, 210.0268
Transformer.MAI1P_21, 288.8262, 1063.653, 0.2397508, 0.4396434, 288.5865, 1063.213
Transformer.MAI1P_22, 175.3085, 430.5076, 5.935656, 7.075386, 169.3729, 423.4322
Transformer.MAI1P_23, 289.5349, 1064.256, 1.159125, 1.818672, 288.3758, 1062.437
Transformer.MAI1P_24, 289.1184, 1063.785, 0.6721964, 1.08829, 288.4462, 1062.696
Transformer.MAI1P_25, 290.3672, 1065.301, 2.084289, 3.206405, 288.2829, 1062.095
Transformer.MAI1P_26, 294.8467, 1074.407, 5.471322, 8.287286, 289.3754, 1066.12
Transformer.MAI1P_27, 119.6204, 330.726, 0.09477305, 0.1232952, 119.5256, 330.6027
Transformer.MAI1P_28, 288.2113, 1061.388, 0.2392404, 0.4387074, 287.9721, 1060.95
Transformer.MAI1P_29, 340.7257, 1134.149, 55.50532, 83.3373, 285.2204, 1050.812
Transformer.MAI1P_30, 167.0646, 417.6087, 0.08789965, 0.1670176, 166.9767, 417.4417
Transformer.MAI1P_31, 288.6627, 1063.051, 0.2396151, 0.4393945, 288.4231, 1062.611
Transformer.MAI1P_32, 242.7561, 586.3678, 53.96141, 76.11187, 188.7947, 510.2559
Transformer.MAI1P_33, 186.9156, 505.129, 0.09473129, 0.2078013, 186.8208, 504.9212
Transformer.MAI1P_34, 482.3364, 667.3725, 367.6785, 350.2335, 114.6579, 317.139
Transformer.MAI1P_35, 166.8237, 417.0066, 0.08777292, 0.1667768, 166.7359, 416.8398
Transformer.MAI1P_36, 166.8194, 416.9959, 0.08777067, 0.1667725, 166.7316, 416.8291
Transformer.MAI1P_37, 288.8894, 1062.549, 0.8517833, 1.35756, 288.0376, 1061.191
Transformer.MAI1P_38, 727.9419, 629.6472, 646.8626, 426.9489, 81.07931, 202.6983
Transformer.MAI1P_39, 203.4942, 529.7138, 15.72756, 22.23636, 187.7666, 507.4774
Transformer.MAI1P_40, 215.3638, 543.8991, 29.39293, 41.27501, 185.9709, 502.6241
Transformer.MAI1P_41, 291.75, 1074.42, 0.2421778, 0.4440938, 291.5078, 1073.976
Transformer.MAI1P_42, 292.9009, 1077.175, 0.9222017, 1.464282, 291.9787, 1075.711
Transformer.MAI1P_43, 293.7394, 1078.193, 1.870661, 2.886955, 291.8687, 1075.306
Transformer.MAI1P_44, 291.1121, 1063.681, 4.030743, 6.013016, 287.0813, 1057.668
Transformer.MAI1P_45, 172.9362, 424.1598, 6.835516, 8.90803, 166.1007, 415.2517
Transformer.MAI1P_46, 287.8434, 1060.034, 0.238935, 0.4381474, 287.6045, 1059.595
Transformer.MAI1P_47, 166.8293, 417.0205, 0.08777584, 0.1667823, 166.7415, 416.8537
Transformer.MAI1P_48, 251.7623, 524.8335, 86.85368, 112.5621, 164.9086, 412.2714
Transformer.MAI1P_49, 291.8622, 1074.834, 0.242271, 0.4442647, 291.62, 1074.389
Transformer.MAI1P_50, 409.1903, 600.6922, 292.8712, 278.9588, 116.319, 321.7335
Transformer.MAI1P_51, 172.2961, 379.7108, 53.46568, 51.03088, 118.8304, 328.6799
Transformer.MAI1P_52, 187.0775, 505.5666, 0.09481336, 0.2079814, 186.9827, 505.3586
Transformer.MAI1P_53, 288.21, 1061.383, 0.2392392, 0.4387053, 287.9707, 1060.945
Transformer.MAI1P_54, 149.3609, 355.7923, 31.65704, 30.22845, 117.7039, 325.5639
Transformer.MAI1P_55, 293.0391, 1077.328, 1.085373, 1.709036, 291.9537, 1075.619
Transformer.MAI1P_56, 202.3041, 525.6492, 16.38265, 23.15871, 185.9215, 502.4905
Transformer.MAI1P_57, 287.7337, 1059.63, 0.2388439, 0.4379804, 287.4949, 1059.192
Transformer.MAI1P_58, 166.8513, 417.0756, 0.08778744, 0.1668044, 166.7635, 416.9088
Transformer.MAI1P_59, 291.8623, 1074.834, 0.242271, 0.4442647, 291.62, 1074.389
Transformer.MAI1P_60, 198.4555, 524.3079, 9.379595, 13.29199, 189.0759, 511.0159
Transformer.MAI1P_61, 529.7961, 885.7812, 364.2465, 471.907, 165.5497, 413.8741
Transformer.MAI1P_62, 172.3091, 425.323, 4.568788, 5.972094, 167.7403, 419.3509
Transformer.MAI1P_63, 467.372, 1332.026, 178.5191, 267.8307, 288.8529, 1064.195
Transformer.MAI1P_64, 191.9059, 513.8943, 3.745514, 5.352667, 188.1604, 508.5416
Transformer.MAI1P_65, 168.8542, 422.0823, 0.08884126, 0.1688067, 168.7654, 421.9135
Transformer.MAI1P_66, 166.8214, 417.0008, 0.08777169, 0.1667744, 166.7336, 416.834
Transformer.MAI1P_67, 147.9648, 357.1788, 28.76116, 27.46664, 119.2036, 329.7122
Transformer.MAI1P_68, 250.2552, 595.435, 62.61957, 88.31152, 187.6357, 507.1235
Transformer.MAI1P_69, 187.0493, 505.4904, 0.09479907, 0.20795, 186.9545, 505.2824
Transformer.MAI1P_70, 188.6608, 444.2403, 22.77742, 29.53185, 165.8834, 414.7085
Transformer.MAI1P_71, 270.1149, 550.7884, 103.4017, 134.0055, 166.7131, 416.7829
Transformer.MAI1P_72, 191.0122, 513.6772, 2.046412, 2.958785, 188.9658, 510.7184
Transformer.MAI1P_73, 197.8137, 522.9647, 9.076912, 12.86535, 188.7368, 510.0993
Transformer.MAI1P_74, 291.8573, 1074.815, 0.2422668, 0.4442571, 291.615, 1074.371
Transformer.MAI1P_75, 190.1103, 447.6373, 22.98938, 29.835, 167.1209, 417.8023
Transformer.MAI1P_76, 187.0391, 505.4628, 0.09479389, 0.2079387, 186.9443, 505.2548
Transformer.MAI1P_77, 247.7611, 522.2051, 80.7368, 104.6442, 167.0243, 417.5608
Transformer.MAI1P_78, 190.4675, 513.094, 1.359209, 1.990502, 189.1083, 511.1035
Transformer.MAI1P_79, 166.5499, 416.3222, 0.08762886, 0.166503, 166.4623, 416.1557
Transformer.MAI1P_80, 505.9391, 949.8987, 322.7727, 454.8544, 183.1664, 495.0443
Transformer.MAI1P_81, 166.8195, 416.9962, 0.08777072, 0.1667726, 166.7318, 416.8294
Transformer.MAI1P_82, 126.2463, 334.8459, 7.934767, 7.601163, 118.3116, 327.2448
Transformer.MAI1P_83, 186.8848, 444.3889, 18.98592, 24.64166, 167.8989, 419.7473
Transformer.MAI1P_84, 174.3371, 425.7919, 8.3881, 10.91929, 165.949, 414.8726
Transformer.MAI1P_85, 294.8567, 1075.593, 4.930759, 7.444423, 289.9259, 1068.148
Transformer.MAI1P_86, 180.8149, 436.6395, 12.81001, 16.6274, 168.0049, 420.0121
Transformer.MAI1P_87, 294.8343, 1079.467, 3.089173, 4.616679, 291.7451, 1074.851
Transformer.MAI1P_88, 187.1867, 505.8617, 0.0948687, 0.2081028, 187.0918, 505.6536
Transformer.MAI1P_89, 187.0391, 505.4628, 0.09479389, 0.2079387, 186.9443, 505.2548
Transformer.MAI1P_90, 145.3511, 352.1605, 27.54078, 26.3022, 117.8103, 325.8583
Transformer.MAI1P_91, 288.7004, 1062.348, 0.6247829, 1.017065, 288.0756, 1061.331
Transformer.MAI1P_92, 221.9694, 555.9236, 34.01397, 47.93594, 187.9554, 507.9876
Transformer.MAI1P_93, 374.6903, 1332.414, 12.71837, 25.2931, 361.9719, 1307.121
Transformer.MAI1P_94, 187.5349, 442.7368, 21.71216, 28.18001, 165.8227, 414.5568
Transformer.MAI1P_95, 287.7343, 1059.632, 0.2388445, 0.4379813, 287.4955, 1059.194
Transformer.MAI1P_96, 167.6389, 418.0741, 0.8934371, 1.210499, 166.7454, 416.8636
Transformer.MAI1P_97, 290.6735, 1070.456, 0.2412842, 0.4424553, 290.4323, 1070.014
Transformer.MAI1P_98, 290.6735, 1070.456, 0.2412842, 0.4424552, 290.4322, 1070.013
Transformer.MAI1P_99, 167.2559, 417.648, 0.4522507, 0.6389742, 166.8036, 417.009
Transformer.MAI1P_100, 167.8697, 418.3403, 1.151602, 1.544935, 166.7181, 416.7953
Transformer.MAI1P_101, 363.3874, 1311.932, 0.2478178, 0.5946582, 363.1395, 1311.337
Transformer.MAI1P_102, 118.8236, 328.5231, 0.09414178, 0.122474, 118.7295, 328.4006
Transformer.MAI1P_103, 287.8898, 1059.671, 0.4830901, 0.8043369, 287.4067, 1058.867
Transformer.MAI1P_104, 171.9515, 422.7787, 5.938341, 7.745745, 166.0132, 415.0329
Transformer.MAI1P_105, 173.097, 424.2073, 7.129727, 9.289122, 165.9673, 414.9181
Transformer.MAI1P_106, 189.2124, 511.3362, 0.09589538, 0.2103549, 189.1165, 511.1258
Transformer.MAI1P_107, 166.8273, 417.0157, 0.08777483, 0.1667804, 166.7396, 416.8489
Transformer.MAI1P_108, 166.569, 416.37, 0.08763894, 0.1665222, 166.4814, 416.2035
Transformer.MAI1P_109, 124.9222, 334.9758, 5.810579, 5.518029, 119.1116, 329.4578
Transformer.MAI1P_110, 192.7233, 514.5673, 4.880582, 6.884238, 187.8427, 507.683
Transformer.MAI1P_111, 119.6726, 330.8704, 0.09481443, 0.1233491, 119.5778, 330.747
Transformer.MAI1P_112, 119.975, 331.7065, 0.09505403, 0.1236608, 119.88, 331.5829
Transformer.MAI1P_113, 290.4861, 1069.766, 0.2411286, 0.4421699, 290.2449, 1069.323
Transformer.MAI1P_114, 1376.943, 2679.419, 1095.869, 1643.883, 281.0741, 1035.536
Transformer.MAI1P_115, 188.3688, 509.0563, 0.09546782, 0.209417, 188.2734, 508.8469
Transformer.MAI1P_116, 186.5892, 504.2469, 0.09456588, 0.2074385, 186.4946, 504.0395
Transformer.MAI1P_117, 342.3261, 1143.035, 54.12283, 81.23354, 288.2032, 1061.801
Transformer.MAI1P_118, 125.2723, 335.4184, 6.132242, 5.882053, 119.1401, 329.5363
Transformer.MAI1P_119, 195.6005, 516.2337, 9.65548, 13.6795, 185.945, 502.5542
Transformer.MAI1P_120, 168.0044, 419.9581, 0.08839416, 0.1679572, 167.916, 419.7901
Transformer.MAI1P_121, 367.3644, 1326.29, 0.25053, 0.6011663, 367.1139, 1325.689
Transformer.MAI1P_122, 363.1083, 1310.924, 0.2476275, 0.5942015, 362.8607, 1310.33
Transformer.MAI1P_123, 168.3007, 420.6987, 0.08855005, 0.1682534, 168.2122, 420.5305
Transformer.MAI1P_124, 241.0418, 510.3394, 76.51982, 99.03445, 164.522, 411.3049
Transformer.MAI1P_125, 256.7784, 530.2913, 92.73531, 120.1836, 164.0431, 410.1078
Transformer.MAI1P_126, 168.337, 420.7895, 0.08856915, 0.1682897, 168.2485, 420.6212
Transformer.MAI1P_127, 166.3939, 415.9322, 0.08754678, 0.1663471, 166.3063, 415.7659
Transformer.MAI1P_128, 264.9629, 543.3009, 98.91741, 128.1871, 166.0455, 415.1138
Transformer.MAI1P_129, 188.3654, 509.0471, 0.09546609, 0.2094132, 188.2699, 508.8377
Transformer.MAI1P_130, 291.5201, 1073.099, 0.4595078, 0.7699756, 291.0606, 1072.329
Transformer.MAI1P_131, 199.5608, 402.8067, 81.84377, 77.20643, 117.717, 325.6002
Transformer.MAI1P_132, 188.3556, 509.0205, 0.09546111, 0.2094023, 188.2601, 508.8111
Transformer.MAI1P_133, 84.76814, 211.7981, 0.07737296, 0.07117873, 84.69077, 211.7269
Transformer.MAI1P_134, 195.7207, 516.284, 9.864926, 13.97106, 185.8558, 502.313
Transformer.MAI1P_135, 367.5781, 1319.219, 5.059471, 10.1243, 362.5186, 1309.095
Transformer.MAI1P_136, 221.7805, 554.5914, 34.65567, 48.84846, 187.1249, 505.7429
Transformer.MAI1P_137, 201.2624, 526.5144, 13.53797, 19.151, 187.7245, 507.3634
Transformer.MAI1P_138, 321.9251, 1114.242, 32.89113, 49.3797, 289.034, 1064.862
Transformer.MAI1P_139, 263.9232, 541.9024, 97.91905, 126.8919, 166.0042, 415.0105
Transformer.MAI1P_140, 134.8844, 344.7766, 15.63972, 14.95078, 119.2447, 329.8258
Transformer.MAI1P_141, 168.3383, 420.7927, 0.08856984, 0.168291, 168.2498, 420.6244
Transformer.MAI1P_142, 181.1767, 436.4021, 13.77525, 17.89857, 167.4014, 418.5036
Transformer.MAI1P_143, 292.0194, 1071.989, 1.809592, 2.79489, 290.2098, 1069.194
Transformer.MAI1P_144, 287.5144, 1058.822, 0.2386596, 0.4376431, 287.2758, 1058.384
Transformer.MAI1P_145, 294.7173, 1076.985, 4.072861, 6.189944, 290.6444, 1070.795
Transformer.MAI1P_146, 168.3358, 420.6984, 0.1616208, 0.2629055, 168.1742, 420.4355
Transformer.MAI1P_147, 470.5613, 902.7169, 285.357, 402.1645, 185.2044, 500.5523
Transformer.MAI1P_148, 290.2114, 1061.8, 3.424191, 5.215866, 286.7872, 1056.585
Transformer.MAI1P_149, 203.495, 529.625, 15.79785, 22.33537, 187.6972, 507.2896
Transformer.MAI1P_150, 450.1538, 1301.012, 163.6716, 245.5508, 286.4822, 1055.461
Transformer.MAI1P_151, 408.467, 815.0841, 223.3706, 314.8236, 185.0964, 500.2605
Transformer.MAI1P_152, 290.2277, 1068.814, 0.2409142, 0.4417767, 289.9868, 1068.372
Transformer.MAI1P_153, 169.4219, 373.8493, 52.31292, 49.93085, 117.109, 323.9184
Transformer.MAI1P_154, 363.1647, 1311.128, 0.2476659, 0.5942938, 362.917, 1310.534
Transformer.MAI1P_155, 188.7009, 445.6602, 21.70559, 28.17187, 166.9953, 417.4883
Transformer.MAI1P_156, 188.37, 509.0595, 0.09546842, 0.2094183, 188.2745, 508.8501
Transformer.MAI1P_157, 162.198, 369.3064, 43.79371, 41.80518, 118.4043, 327.5012
Transformer.MAI1P_158, 189.8567, 511.364, 1.420126, 2.076074, 188.4365, 509.2879
Transformer.MAI1P_159, 188.559, 509.5702, 0.09556419, 0.2096284, 188.4634, 509.3605
Transformer.MAI1P_160, 392.9536, 1218.366, 105.0337, 157.6088, 287.9199, 1060.758
Transformer.MAI1P_161, 187.4151, 443.8163, 20.53992, 26.62845, 166.8751, 417.1878
Transformer.MAI1P_162, 124.1551, 334.3121, 5.037524, 4.837852, 119.1176, 329.4743
Transformer.MAI1P_163, 290.2273, 1068.813, 0.2409139, 0.4417761, 289.9864, 1068.371
Transformer.MAI1P_164, 189.1077, 511.053, 0.09584228, 0.2102384, 189.0118, 510.8428
Transformer.MAI1P_165, 186.7742, 392.038, 68.72079, 65.50737, 118.0534, 326.5306
Transformer.MAI1P_166, 215.6002, 545.8787, 28.43688, 40.03183, 187.1633, 505.8468
Transformer.MAI1P_167, 226.9527, 559.3683, 41.787, 58.92057, 185.1657, 500.4477
Transformer.MAI1P_168, 169.9196, 420.0489, 3.987434, 5.218398, 165.9322, 414.8305
Transformer.MAI1P_169, 314.7768, 359.8168, 232.1441, 153.235, 82.6327, 206.5818
Transformer.MAI1P_170, 167.9711, 419.8748, 0.08837662, 0.1679239, 167.8827, 419.7068
Transformer.MAI1P_171, 149.3875, 356.954, 30.95773, 29.38221, 118.4298, 327.5718
Transformer.MAI1P_172, 184.4637, 438.3066, 19.01575, 24.6868, 165.4479, 413.6198
Transformer.MAI1P_173, 363.0894, 1310.856, 0.2476146, 0.5941706, 362.8418, 1310.262
Transformer.MAI1P_174, 124.0638, 334.2888, 4.905518, 4.701974, 119.1583, 329.5868
Transformer.MAI1P_175, 258.2595, 534.4634, 92.34888, 119.6868, 165.9106, 414.7766
Transformer.MAI1P_176, 188.1172, 506.0602, 1.885325, 2.730709, 186.2319, 503.3295
Transformer.MAI1P_177, 190.7947, 509.7597, 4.619462, 6.583356, 186.1752, 503.1763
Transformer.MAI1P_178, 190.2787, 511.9115, 1.878676, 2.722203, 188.4, 509.1893
Transformer.MAI1P_179, 197.0432, 520.9274, 9.041784, 12.81556, 188.0014, 508.1119
Transformer.MAI1P_180, 188.3693, 509.0576, 0.09546806, 0.2094175, 188.2738, 508.8482
Transformer.MAI1P_181, 167.9658, 419.8615, 0.08837382, 0.1679185, 167.8774, 419.6935
Transformer.MAI1P_182, 266.2955, 544.0904, 100.5803, 129.8024, 165.7152, 414.288
Transformer.MAI1P_183, 167.888, 417.5782, 1.821941, 2.413128, 166.066, 415.1651
Transformer.MAI1P_184, 188.9782, 510.7032, 0.09577668, 0.2100945, 188.8825, 510.4931
Transformer.MAI1P_185, 272.4677, 625.3341, 85.91424, 121.1355, 186.5535, 504.1987
Transformer.MAI1P_186, 287.5665, 1059.014, 0.2387051, 0.4377258, 287.3278, 1058.576
Transformer.MAI1P_187, 188.879, 507.0582, 2.705353, 3.886187, 186.1737, 503.172
Transformer.MAI1P_188, 290.6439, 1070.347, 0.2412597, 0.4424102, 290.4027, 1069.905
Transformer.MAI1P_189, 119.665, 330.8493, 0.09480839, 0.1233412, 119.5702, 330.726
Transformer.MAI1P_190, 119.8036, 331.2326, 0.09491821, 0.1234841, 119.7087, 331.1091
Transformer.MAI1P_191, 363.165, 1311.129, 0.2476661, 0.5942943, 362.9173, 1310.535
Transformer.MAI1P_192, 119.6279, 330.7468, 0.09477902, 0.123303, 119.5331, 330.6235
Transformer.MAI1P_193, 119.6527, 330.8154, 0.09479867, 0.1233286, 119.5579, 330.6921
Transformer.MAI1P_194, 291.1769, 1063.235, 4.395788, 6.673258, 286.7811, 1056.562
Transformer.MAI1P_195, 287.5584, 1058.984, 0.2386984, 0.4377135, 287.3197, 1058.546
Transformer.MAI1P_196, 366.8619, 1324.476, 0.2501873, 0.600344, 366.6117, 1323.876
Transformer.MAI1P_197, 172.4015, 425.4134, 4.685418, 6.123176, 167.7161, 419.2902
Transformer.MAI1P_198, 290.4758, 1069.728, 0.2411201, 0.4421542, 290.2346, 1069.286
Transformer.MAI1P_199, 290.4796, 1069.742, 0.2411232, 0.44216, 290.2384, 1069.3
...
Capacitor.CAP0, -6.366463E-012, -301902, -6.366463E-012, -301902, 0, 0
Capacitor.CAP1, 6.366463E-012, -306493.7, 6.366463E-012, -306493.7, 0, 0
Line.LV1FMAI1, 13.45087, 2.478467, 13.45087, 2.478467, 0, 0
Line.LV1FMAI2, 148.1292, 27.23438, 148.1292, 27.23438, 0, 0
Line.LV1FMAI3, 15.80636, 2.951749, 15.80636, 2.951749, 0, 0
Line.LV1FMAI4, 0.02315692, 0.004026713, 0.02315692, 0.004026713, 0, 0
Line.LV1FMAI5, 0.03555115, 0.006069346, 0.03555115, 0.006069346, 0, 0
Line.LV1FMAI6, 90.14584, 16.54856, 90.14584, 16.54856, 0, 0
Line.LV1FMAI7, 0.03465271, 0.005915963, 0.03465271, 0.005915963, 0, 0
Line.LV1FMAI8, 0.01304263, 0.01081075, 0.01304263, 0.01081075, 0, 0
Line.LV1FMAI9, 0.05006613, 0.00914868, 0.05006613, 0.00914868, 0, 0
Line.LV1FMAI10, 0.1783903, 0.0322836, 0.1783903, 0.0322836, 0, 0
Line.LV1FMAI11, 61.77443, 11.34244, 61.77443, 11.34244, 0, 0
Line.LV1FMAI12, 0.01393164, 0.002378442, 0.01393164, 0.002378442, 0, 0
Line.LV1FMAI13, 0.001716041, 0.0002637362, 0.001716041, 0.0002637362, 0, 0
Line.LV1FMAI14, 0.03728516, 0.00648343, 0.03728516, 0.00648343, 0, 0
Line.LV1FMAI15, 0.01583674, 0.00240492, 0.01583674, 0.00240492, 0, 0
Line.LV1FMAI16, 0.001669425, 0.0001290253, 0.001669425, 0.0001290253, 0, 0
Line.LV1FMAI17, 45.24266, 8.298687, 45.24266, 8.298687, 0, 0
Line.LV1FMAI18, 0.01548919, 0.0124514, 0.01548919, 0.0124514, 0, 0
Line.LV1FMAI19, 0.03309544, 0.00588963, 0.03309544, 0.00588963, 0, 0
Line.LV1FMAI20, 0.00794692, 0.001154095, 0.00794692, 0.001154095, 0, 0
Line.LV1FMAI21, 0.001527184, 1.215769E-005, 0.001527184, 1.215769E-005, 0, 0
Line.LV1FMAI22, 0.2771495, 0.05045159, 0.2771495, 0.05045159, 0, 0
Line.LV1FMAI23, 0.003187661, 0.0003944089, 0.003187661, 0.0003944089, 0, 0
Line.LV1FMAI24, 2.067549, 0.3789185, 2.067549, 0.3789185, 0, 0
Line.LV1FMAI25, 0.006096703, 0.0008509247, 0.006096703, 0.0008509247, 0, 0
Line.LV1FMAI26, 2.571561, 0.4714302, 2.571561, 0.4714302, 0, 0
Line.LV1FMAI27, 0.04595073, 0.008161864, 0.04595073, 0.008161864, 0, 0
Line.LV1FMAI28, 0.2778648, 0.0507048, 0.2778648, 0.0507048, 0, 0
Line.LV1FMAI29, 8.248395, 1.587282, 8.248395, 1.587282, 0, 0
Line.LV1FMAI30, 0.05130057, 0.008644763, 0.05130057, 0.008644763, 0, 0
Line.LV1FMAI31, 0.07489678, 0.01297334, 0.07489678, 0.01297334, 0, 0
Line.LV1FMAI32, 0.1646297, 0.03001726, 0.1646297, 0.03001726, 0, 0
Line.LV1FMAI33, 0.7035102, 0.1282158, 0.7035102, 0.1282158, 0, 0
Line.LV1FMAI34, 0.01251498, 0.001875403, 0.01251498, 0.001875403, 0, 0
Line.LV1FMAI35, 0.3547024, 0.06465499, 0.3547024, 0.06465499, 0, 0
Line.LV1FMAI36, 0.07767819, 0.07076186, 0.07767819, 0.07076186, 0, 0
Line.LV1FMAI37, 0.01861339, 0.003392337, 0.01861339, 0.003392337, 0, 0
Line.LV1FMAI38, 2.38055, 0.5278655, 2.38055, 0.5278655, 0, 0
Line.LV1FMAI39, -5.667186E-011, -0.0009924356, -5.667186E-011, -0.0009924356, 0, 0
Line.LV1FMAI40, 40.38736, 9.187349, 40.38736, 9.187349, 0, 0
Line.LV1FMAI41, 0.00444054, 0.0004990225, 0.00444054, 0.0004990225, 0, 0
Line.LV1FMAI42, 0.04686911, 0.008227679, 0.04686911, 0.008227679, 0, 0
Line.LV1FMAI43, 19.7756, 4.39752, 19.7756, 4.39752, 0, 0
Line.LV1FMAI44, 0.0143927, 0.01170358, 0.0143927, 0.01170358, 0, 0
Line.LV1FMAI45, 3.900702, 0.8188491, 3.900702, 0.8188491, 0, 0
Line.LV1FMAI46, 1.478721, 0.279376, 1.478721, 0.279376, 0, 0
Line.LV1FMAI47, 0.001406328, -7.79287E-005, 0.001406328, -7.79287E-005, 0, 0
Line.LV1FMAI48, 0.01373718, 0.01088802, 0.01373718, 0.01088802, 0, 0
Line.LV1FMAI49, 0.003101479, 0.0002795641, 0.003101479, 0.0002795641, 0, 0
Line.LV1FMAI50, 0.09612961, 0.08914722, 0.09612961, 0.08914722, 0, 0
Line.LV1FMAI51, 0.03481947, 0.006054672, 0.03481947, 0.006054672, 0, 0
Line.LV1FMAI52, 0.002157602, 0.0001944858, 0.002157602, 0.0001944858, 0, 0
Line.LV1FMAI53, 0.05362968, 0.04855491, 0.05362968, 0.04855491, 0, 0
Line.LV1FMAI54, 0.001147175, 9.129387E-006, 0.001147175, 9.129387E-006, 0, 0
Line.LV1FMAI55, 0.3434902, 0.0624854, 0.3434902, 0.0624854, 0, 0
Line.LV1FMAI56, 0.1773713, 0.166835, 0.1773713, 0.166835, 0, 0
Line.LV1FMAI57, 0.002478306, 0.0003066369, 0.002478306, 0.0003066369, 0, 0
Line.LV1FMAI58, 0.005310705, 0.0009159633, 0.005310705, 0.0009159633, 0, 0
Line.LV1FMAI59, 0.002173366, 0.0003340221, 0.002173366, 0.0003340221, 0, 0
Line.LV1FMAI60, 0.02726966, 0.004741859, 0.02726966, 0.004741859, 0, 0
Line.LV1FMAI61, 0.003806619, 0.0004277766, 0.003806619, 0.0004277766, 0, 0
Line.LV1FMAI62, 0.004618888, 0.0006959622, 0.004618888, 0.0006959622, 0, 0
Line.LV1FMAI63, -5.438261E-010, -0.0001204223, -5.438261E-010, -0.0001204223, 0, 0
Line.LV1FMAI64, 0.02457733, 0.004273698, 0.02457733, 0.004273698, 0, 0
Line.LV1FMAI65, 0.0008739906, 0.0001269275, 0.0008739906, 0.0001269275, 0, 0
Line.LV1FMAI66, 0.0004370007, 6.345989E-005, 0.0004370007, 6.345989E-005, 0, 0
Line.LV1FMAI67, 0.00087393, 0.0001269186, 0.00087393, 0.0001269186, 0, 0
Line.LV1FMAI68, 0.03540669, 0.005872801, 0.03540669, 0.005872801, 0, 0
Line.LV1FMAI69, 0.006070281, 0.0008815572, 0.006070281, 0.0008815572, 0, 0
Line.LV1FMAI70, 0.06139529, 0.0111449, 0.06139529, 0.0111449, 0, 0
Line.LV1FMAI71, 0.006363983, 0.005169198, 0.006363983, 0.005169198, 0, 0
Line.LV1FMAI72, 0.01686112, 0.002861061, 0.01686112, 0.002861061, 0, 0
Line.LV1FMAI73, 2.042135E-010, -0.0006499576, 2.042135E-010, -0.0006499576, 0, 0
Line.LV1FMAI74, 0.0008394167, -0.0001135426, 0.0008394167, -0.0001135426, 0, 0
Line.LV1FMAI75, 0.01013789, 0.001558072, 0.01013789, 0.001558072, 0, 0
Line.LV1FMAI76, 0.0004369974, 6.346368E-005, 0.0004369974, 6.346368E-005, 0, 0
Line.LV1FMAI77, 3.554108, 0.6519188, 3.554108, 0.6519188, 0, 0
Line.LV1FMAI78, 25.89676, 4.75001, 25.89676, 4.75001, 0, 0
Line.LV1FMAI79, 0.02210479, 0.003794219, 0.02210479, 0.003794219, 0, 0
Line.LV1FMAI80, 0.1074234, 0.01957193, 0.1074234, 0.01957193, 0, 0
Line.LV1FMAI81, 3.078467, 0.5645909, 3.078467, 0.5645909, 0, 0
Line.LV1FMAI82, 10.01197, 1.83571, 10.01197, 1.83571, 0, 0
Line.LV1FMAI83, 0.1030381, 0.01882835, 0.1030381, 0.01882835, 0, 0
Line.LV1FMAI84, 0.009274446, 0.001628097, 0.009274446, 0.001628097, 0, 0
Line.LV1FMAI85, 0.5092882, 0.0932078, 0.5092882, 0.0932078, 0, 0
Line.LV1FMAI86, 0.1389543, 0.02477917, 0.1389543, 0.02477917, 0, 0
Line.LV1FMAI87, 0.2530665, 0.04631522, 0.2530665, 0.04631522, 0, 0
Line.LV1FMAI88, 9.423558E-011, -0.001036342, 9.423558E-011, -0.001036342, 0, 0
Line.LV1FMAI89, -4.750331E-010, -0.0001315281, -4.750331E-010, -0.0001315281, 0, 0
Line.LV1FMAI90, 0.3987038, 0.07305939, 0.3987038, 0.07305939, 0, 0
Line.LV1FMAI91, -1.853914E-010, -0.0003377984, -1.853914E-010, -0.0003377984, 0, 0
Line.LV1FMAI92, 0.7687318, 0.1407439, 0.7687318, 0.1407439, 0, 0
Line.LV1FMAI93, 0.06250231, 0.01126681, 0.06250231, 0.01126681, 0, 0
Line.LV1FMAI94, 0.3075669, 0.05636822, 0.3075669, 0.05636822, 0, 0
Line.LV1FMAI95, 0.0159268, 0.002447734, 0.0159268, 0.002447734, 0, 0
Line.LV1FMAI96, 1.177133, 0.2155168, 1.177133, 0.2155168, 0, 0
Line.LV1FMAI97, 0.1025607, 0.01869193, 0.1025607, 0.01869193, 0, 0
Line.LV1FMAI98, 0.003634575, 0.0005446573, 0.003634575, 0.0005446573, 0, 0
Line.LV1FMAI99, 0.06620945, 0.01190849, 0.06620945, 0.01190849, 0, 0
Line.LV1FMAI100, 0.001911005, -0.0002129561, 0.001911005, -0.0002129561, 0, 0
Line.LV1FMAI101, 1.239632, 0.227345, 1.239632, 0.227345, 0, 0
Line.LV1FMAI102, 0.7315839, 0.1335474, 0.7315839, 0.1335474, 0, 0
Line.LV1FMAI103, 8.118664, 1.488355, 8.118664, 1.488355, 0, 0
Line.LV1FMAI104, 0.03041928, 0.005269156, 0.03041928, 0.005269156, 0, 0
Line.LV1FMAI105, 0.001909527, 0.0002145944, 0.001909527, 0.0002145944, 0, 0
Line.LV1FMAI106, 0.003550737, 0.0005156615, 0.003550737, 0.0005156615, 0, 0
Line.LV1FMAI107, 0.007344812, 0.0009087608, 0.007344812, 0.0009087608, 0, 0
Line.LV1FMAI108, 0.7549313, 0.1378102, 0.7549313, 0.1378102, 0, 0
Line.LV1FMAI109, 0.03617217, 0.00647485, 0.03617217, 0.00647485, 0, 0
Line.LV1FMAI110, 0.3705415, 0.06754213, 0.3705415, 0.06754213, 0, 0
Line.LV1FMAI111, 0.004893509, 0.0007520811, 0.004893509, 0.0007520811, 0, 0
Line.LV1FMAI112, 0.1515914, 0.02737732, 0.1515914, 0.02737732, 0, 0
Line.LV1FMAI113, 0.001083728, 5.320435E-005, 0.001083728, 5.320435E-005, 0, 0
Line.LV1FMAI114, 0.0005122346, -5.163492E-005, 0.0005122346, -5.163492E-005, 0, 0
Line.LV1FMAI115, 0.0002561195, -2.58191E-005, 0.0002561195, -2.58191E-005, 0, 0
Line.LV1FMAI116, 0.0005418571, 2.659993E-005, 0.0005418571, 2.659993E-005, 0, 0
Line.LV1FMAI117, 0.02986694, 0.005333276, 0.02986694, 0.005333276, 0, 0
Line.LV1FMAI118, 4.918312, 0.9027044, 4.918312, 0.9027044, 0, 0
Line.LV1FMAI119, 90.82771, 16.67048, 90.82771, 16.67048, 0, 0
Line.LV1FMAI120, 2.753952, 0.5051256, 2.753952, 0.5051256, 0, 0
Line.LV1FMAI121, 48.20931, 8.851599, 48.20931, 8.851599, 0, 0
Line.LV1FMAI122, 0.1706304, 0.03113669, 0.1706304, 0.03113669, 0, 0
Line.LV1FMAI123, 0.4473893, 0.08177555, 0.4473893, 0.08177555, 0, 0
Line.LV1FMAI124, 0.01010531, 0.00149589, 0.01010531, 0.00149589, 0, 0
Line.LV1FMAI125, 0.4755047, 0.08683315, 0.4755047, 0.08683315, 0, 0
Line.LV1FMAI126, 0.01357888, 0.002391595, 0.01357888, 0.002391595, 0, 0
Line.LV1FMAI127, 0.01529422, 0.01158387, 0.01529422, 0.01158387, 0, 0
Line.LV1FMAI128, 0.7958577, 0.1457196, 0.7958577, 0.1457196, 0, 0
Line.LV1FMAI129, 0.1842841, 0.03341087, 0.1842841, 0.03341087, 0, 0
Line.LV1FMAI130, 0.1737285, 0.03159456, 0.1737285, 0.03159456, 0, 0
Line.LV1FMAI131, 0.1032306, 0.01883755, 0.1032306, 0.01883755, 0, 0
Line.LV1FMAI132, 0.8056008, 0.1474238, 0.8056008, 0.1474238, 0, 0
Line.LV1FMAI133, 31.80731, 5.834757, 31.80731, 5.834757, 0, 0
Line.LV1FMAI134, 120.3527, 22.07701, 120.3527, 22.07701, 0, 0
Line.LV1FMAI135, 50.57249, 9.27627, 50.57249, 9.27627, 0, 0
Line.LV1FMAI136, 4.05514, 0.7436356, 4.05514, 0.7436356, 0, 0
Line.LV1FMAI137, 2.873237, 0.5269093, 2.873237, 0.5269093, 0, 0
Line.LV1FMAI138, 61.29642, 11.24357, 61.29642, 11.24357, 0, 0
Line.LV1FMAI139, 0.001600249, 3.335013E-005, 0.001600249, 3.335013E-005, 0, 0
Line.LV1FMAI140, 2.032419, 0.3726739, 2.032419, 0.3726739, 0, 0
Line.LV1FMAI141, -9.746265E-011, -0.0008863663, -9.746265E-011, -0.0008863663, 0, 0
Line.LV1FMAI142, 0.9215585, 0.1688186, 0.9215585, 0.1688186, 0, 0
Line.LV1FMAI143, 7.8925, 1.447586, 7.8925, 1.447586, 0, 0
Line.LV1FMAI144, 0.004943593, 0.000673797, 0.004943593, 0.000673797, 0, 0
Line.LV1FMAI145, 0.1842246, 0.03352653, 0.1842246, 0.03352653, 0, 0
Line.LV1FMAI146, 24.55647, 4.503811, 24.55647, 4.503811, 0, 0
Line.LV1FMAI147, 2.656847, 0.4869116, 2.656847, 0.4869116, 0, 0
Line.LV1FMAI148, 0.3967407, 0.07269246, 0.3967407, 0.07269246, 0, 0
Line.LV1FMAI149, 0.8454239, 0.1550001, 0.8454239, 0.1550001, 0, 0
Line.LV1FMAI150, 7.881206, 1.445692, 7.881206, 1.445692, 0, 0
Line.LV1FMAI151, 33.0265, 6.057365, 33.0265, 6.057365, 0, 0
Line.LV1FMAI152, 18.79858, 3.446841, 18.79858, 3.446841, 0, 0
Line.LV1FMAI153, 1.904887, 0.3490209, 1.904887, 0.3490209, 0, 0
Line.LV1FMAI154, 0.3018858, 0.05496214, 0.3018858, 0.05496214, 0, 0
Line.LV1FMAI155, 0.07979746, 0.01455162, 0.07979746, 0.01455162, 0, 0
Line.LV1FMAI156, 0.01296471, 0.001604071, 0.01296471, 0.001604071, 0, 0
Line.LV1FMAI157, 0.3662334, 0.3423994, 0.3662334, 0.3423994, 0, 0
Line.LV1FMAI158, 1.703215, 0.3119491, 1.703215, 0.3119491, 0, 0
Line.LV1FMAI159, 1.93621, 0.3546904, 1.93621, 0.3546904, 0, 0
Line.LV1FMAI160, 0.3514687, 0.06434644, 0.3514687, 0.06434644, 0, 0
Line.LV1FMAI161, 1.492913, 0.273113, 1.492913, 0.273113, 0, 0
Line.LV1FMAI162, 0.0788242, 0.01408442, 0.0788242, 0.01408442, 0, 0
Line.LV1FMAI163, 0.0211245, 0.003499818, 0.0211245, 0.003499818, 0, 0
Line.LV1FMAI164, 0.03941186, 0.007042151, 0.03941186, 0.007042151, 0, 0
Line.LV1FMAI165, 0.01056225, 0.001749901, 0.01056225, 0.001749901, 0, 0
Line.LV1FMAI166, 0.03733962, 0.006474373, 0.03733962, 0.006474373, 0, 0
Line.LV1FMAI167, 0.0186697, 0.003237155, 0.0186697, 0.003237155, 0, 0
Line.LV1FMAI168, 0.02978763, 0.00453677, 0.02978763, 0.00453677, 0, 0
Line.LV1FMAI169, 0.870029, 0.1590271, 0.870029, 0.1590271, 0, 0
Line.LV1FMAI170, 0.02974648, 0.004530782, 0.02974648, 0.004530782, 0, 0
Line.LV1FMAI171, 8.862649E-011, -0.0009008622, 8.862649E-011, -0.0009008622, 0, 0
Line.LV1FMAI172, 0.00676035, 0.00102973, 0.00676035, 0.00102973, 0, 0
Line.LV1FMAI173, 0.5087733, 0.09259232, 0.5087733, 0.09259232, 0, 0
Line.LV1FMAI174, 0.05036615, 0.008981641, 0.05036615, 0.008981641, 0, 0
Line.LV1FMAI175, 0.06472079, 0.01166672, 0.06472079, 0.01166672, 0, 0
Line.LV1FMAI176, 0.9345649, 0.1710167, 0.9345649, 0.1710167, 0, 0
Line.LV1FMAI177, 3.957572, 0.7259361, 3.957572, 0.7259361, 0, 0
Line.LV1FMAI178, 16.41545, 3.011011, 16.41545, 3.011011, 0, 0
Line.LV1FMAI179, 0.7975999, 0.1457465, 0.7975999, 0.1457465, 0, 0
Line.LV1FMAI180, 1.899381E-011, -0.0009426163, 1.899381E-011, -0.0009426163, 0, 0
Line.LV1FMAI181, 1.357976, 1.290144, 1.357976, 1.290144, 0, 0
Line.LV1FMAI182, 17.46713, 3.203877, 17.46713, 3.203877, 0, 0
Line.LV1FMAI183, 0.02152625, 0.003694915, 0.02152625, 0.003694915, 0, 0
Line.LV1FMAI184, 0.002715499, 0.0004173439, 0.002715499, 0.0004173439, 0, 0
Line.LV1FMAI185, 0.2982317, 0.05442116, 0.2982317, 0.05442116, 0, 0
Line.LV1FMAI186, 0.003020464, 0.0001946051, 0.003020464, 0.0001946051, 0, 0
Line.LV1FMAI187, 1.128562, 0.2067391, 1.128562, 0.2067391, 0, 0
Line.LV1FMAI188, 0.0008020144, 9.013236E-005, 0.0008020144, 9.013236E-005, 0, 0
Line.LV1FMAI189, 0.2106503, 0.03828283, 0.2106503, 0.03828283, 0, 0
Line.LV1FMAI190, 0.001510242, 9.730328E-005, 0.001510242, 9.730328E-005, 0, 0
Line.LV1FMAI191, 0.1053245, 0.01914127, 0.1053245, 0.01914127, 0, 0
Line.LV1FMAI192, 0.009405803, 0.001365961, 0.009405803, 0.001365961, 0, 0
Line.LV1FMAI193, 0.03841458, 0.006337652, 0.03841458, 0.006337652, 0, 0
Line.LV1FMAI194, 0.00595156, 0.0003823528, 0.00595156, 0.0003823528, 0, 0
Line.LV1FMAI195, 0.01923852, 0.003175104, 0.01923852, 0.003175104, 0, 0
Line.LV1FMAI196, 0.00298033, 0.0001925424, 0.00298033, 0.0001925424, 0, 0
Line.LV1FMAI197, 0.00531345, 0.0002608088, 0.00531345, 0.0002608088, 0, 0
Line.LV1FMAI198, 0.7320072, 0.1335765, 0.7320072, 0.1335765, 0, 0
Line.LV1FMAI199, 0.006663877, 0.0005147596, 0.006663877, 0.0005147596, 0, 0
Line.LV1FMAI200, 0.05999671, 0.01029817, 0.05999671, 0.01029817, 0, 0
...
